savnw_dy_sol_0905.raw
0,   100.00, 33, 0, 1, 60.00     / PSS(R)E-33.3    WED, JUN 14 2017  18:56
   101,'NUC-A       ',  21.6000,2,   1,  77,   1,1.02000,  16.4367,1.10000,0.90000,1.10000,0.90000
   102,'NUC-B       ',  21.6000,2,   1,  77,   1,1.02000,  16.4367,1.10000,0.90000,1.10000,0.90000
   151,'NUCPANT     ', 500.0000,1,   1,   1,   1,1.01192,  40.7789,1.10000,0.90000,1.10000,0.90000
   152,'MID500      ', 500.0000,1,   1,   1,   1,1.01725,  28.7634,1.10000,0.90000,1.10000,0.90000
   153,'MID230      ', 230.0000,1,   1,   1,   1,1.02903,  26.7455,1.10000,0.90000,1.10000,0.90000
   154,'DOWNTN      ', 230.0000,1,   1,   1,   1,0.96681,  20.3921,1.10000,0.90000,1.10000,0.90000
   201,'HYDRO       ', 500.0000,1,   2,   2,   1,1.04000,  36.0589,1.10000,0.90000,1.10000,0.90000
   202,'EAST500     ', 500.0000,1,   2,   2,   1,1.01439,  28.5930,1.10000,0.90000,1.10000,0.90000
   203,'EAST230     ', 230.0000,1,   2,   2,   1,0.98405,  23.1934,1.10000,0.90000,1.10000,0.90000
   204,'SUB500      ', 500.0000,1,   2,   2,   1,0.97976,  26.1943,1.10000,0.90000,1.10000,0.90000
   205,'SUB230      ', 230.0000,1,   2,   2,   1,0.97609,  21.0485,1.10000,0.90000,1.10000,0.90000
   206,'URBGEN      ',  18.0000,2,   2,   2,   1,1.04915,  -3.0620,1.10000,0.90000,1.10000,0.90000
   211,'HYDRO_G     ',  20.0000,2,   2,   2,   1,1.03493,  12.8654,1.10000,0.90000,1.10000,0.90000
  3001,'MINE        ', 230.0000,1,   5,   5,   1,1.03415,  28.6352,1.10000,0.90000,1.10000,0.90000
  3002,'E. MINE     ', 500.0000,1,   5,   5,   1,1.03354,  28.1782,1.10000,0.90000,1.10000,0.90000
  3003,'S. MINE     ', 230.0000,1,   5,   5,   1,1.03047,  27.7735,1.10000,0.90000,1.10000,0.90000
  3004,'WEST        ', 500.0000,1,   5,   5,   1,1.02668,  26.5440,1.10000,0.90000,1.10000,0.90000
  3005,'WEST        ', 230.0000,1,   5,   5,   1,1.01140,  24.8903,1.10000,0.90000,1.10000,0.90000
  3006,'UPTOWN      ', 230.0000,1,   5,   5,   1,1.02456,  26.2143,1.10000,0.90000,1.10000,0.90000
  3007,'RURAL       ', 230.0000,1,   5,   5,   1,0.98384,  21.6604,1.10000,0.90000,1.10000,0.90000
  3008,'CATDOG1     ', 230.0000,1,   5,   5,   1,0.98161,  21.1773,1.10000,0.90000,1.10000,0.90000
  3011,'MINE_G      ',  13.8000,3,   5,   5,   1,1.04000,   0.0000,1.10000,0.90000,1.10000,0.90000
  3018,'CATDOG_G    ',  13.8000,2,   5,   5,   1,1.04360,  -4.0725,1.10000,0.90000,1.10000,0.90000
0 / END OF BUS DATA, BEGIN LOAD DATA
   153,'1 ',1,   1,   1,     0.000,     0.000,     0.000,     0.000,   188.875,   -94.437,   1,1,0
   154,'1 ',1,   2,   1,     0.000,     0.000,     0.000,     0.000,   641.906,  -481.430,   1,1,0
   154,'2 ',1,   2,   1,     0.000,     0.000,     0.000,     0.000,   427.938,  -374.445,   1,1,0
   203,'1 ',1,   2,   2,     0.000,     0.000,     0.000,     0.000,   309.803,  -154.901,   1,1,0
   205,'1 ',1,   2,   2,     0.000,     0.000,     0.000,     0.000,  1259.506,  -734.712,   1,1,0
  3005,'1 ',1,   5,   5,     0.000,     0.000,     0.000,     0.000,    97.758,   -48.879,   1,1,0
  3007,'1 ',1,   5,   5,     0.000,     0.000,     0.000,     0.000,   206.622,   -77.483,   1,1,0
  3008,'1 ',1,   5,   5,     0.000,     0.000,     0.000,     0.000,   207.564,   -77.836,   1,1,0
0 / END OF LOAD DATA, BEGIN FIXED SHUNT DATA
   151,'1 ',1,     0.000,  -600.000
   154,'1 ',1,     0.000,   300.000
   201,'1 ',1,     0.000,   300.000
   203,'1 ',1,     0.000,    50.000
   205,'1 ',1,     0.000,   300.000
0 / END OF FIXED SHUNT DATA, BEGIN GENERATOR DATA
   101,'1 ',   750.000,    81.013,   600.000,  -100.000,1.02000,     0,   900.000, 0.00000E+0, 3.00000E-1, 0.00000E+0, 0.00000E+0,1.00000,1,10000.0,   810.000,     0.000,   1,1.0000
   102,'1 ',   750.000,    81.013,   600.000,  -100.000,1.02000,     0,   900.000, 0.00000E+0, 3.00000E-1, 0.00000E+0, 0.00000E+0,1.00000,1,10000.0,   810.000,     0.000,   1,1.0000
   206,'1 ',   800.000,   600.000,   600.000,     0.000,0.98000,   205,  1000.000, 0.00000E+0, 2.50000E-1, 0.00000E+0, 0.00000E+0,1.00000,1,10000.0,   900.000,     0.000,   1,1.0000
   211,'1 ',   600.000,    -8.779,   400.000,  -100.000,1.04000,   201,   725.000, 0.00000E+0, 2.60000E-1, 0.00000E+0, 0.00000E+0,1.00000,1,10000.0,   616.250,     0.000,   1,1.0000
  3011,'1 ',   257.3328,    58.752,   600.000,  -100.000,1.04000,     0,  1000.000, 0.00000E+0, 3.50000E-1, 0.00000E+0, 0.00000E+0,1.00000,1,10000.0,   900.000,     0.000,   1,1.0000
  3018,'1 ',   100.000,    80.000,    80.000,     0.000,1.02000,  3008,   130.000, 0.00000E+0, 3.50000E-1, 0.00000E+0, 0.00000E+0,1.00000,1,10000.0,   117.000,     0.000,   1,1.0000
0 / END OF GENERATOR DATA, BEGIN BRANCH DATA
   151,   152,'1 ', 2.60000E-3, 4.60000E-2,   3.50000, 1200.00, 1300.00,    0.00,  0.00000,  0.00000,  0.00000,  0.00000,1,1,   0.00,   1,1.0000
   151,   152,'2 ', 2.60000E-3, 4.60000E-2,   3.50000, 1200.00, 1300.00,    0.00,  0.00000,  0.00000,  0.00000,  0.00000,1,1,   0.00,   1,1.0000
   151,   201,'1 ', 1.00000E-3, 1.50000E-2,   1.20000, 1200.00, 1300.00,    0.00,  0.00000,  0.00000,  0.00000,  0.00000,1,1,   0.00,   1,1.0000
   152,   202,'1 ', 8.00000E-4, 1.00000E-2,   0.95000, 1200.00, 1300.00,    0.00,  0.00000,  0.00000,  0.00000,  0.00000,1,2,   0.00,   1,1.0000
   152,  3004,'1 ', 3.00000E-3, 3.00000E-2,   2.50000,    0.00,    0.00,    0.00,  0.00000,  0.00000,  0.00000,  0.00000,1,1,   0.00,   1,1.0000
   153,   154,'1 ', 5.00000E-3, 4.50000E-2,   0.10000,  300.00,  350.00,    0.00,  0.00000,  0.00000,  0.00000,  0.00000,1,1,   0.00,   1,1.0000
   153,   154,'2 ', 6.00000E-3, 5.40000E-2,   0.15000,  300.00,  350.00,    0.00,  0.00000,  0.00000,  0.00000,  0.00000,1,1,   0.00,   1,1.0000
   153,  3006,'1 ', 1.00000E-3, 1.20000E-2,   0.03000,    0.00,    0.00,    0.00,  0.00000,  0.00000,  0.00000,  0.00000,1,1,   0.00,   1,1.0000
   154,   203,'1 ', 4.00000E-3, 4.00000E-2,   0.10000,  200.00,  250.00,    0.00,  0.00000,  0.00000,  0.00000,  0.00000,1,1,   0.00,   1,1.0000
   154,   205,'1 ', 3.30000E-4, 3.33000E-3,   0.09000,  600.00,  660.00,    0.00,  0.00000,  0.00000,  0.00000,  0.00000,1,1,   0.00,   1,1.0000
   154,  3008,'1 ', 2.70000E-3, 2.20000E-2,   0.30000,  400.00,  440.00,    0.00,  0.00000,  0.00000,  0.00000,  0.00000,1,1,   0.00,   1,1.0000
   201,   202,'1 ', 2.00000E-3, 2.50000E-2,   2.00000, 1200.00, 1300.00,    0.00,  0.00000,  0.00000,  0.00000,  0.00000,1,1,   0.00,   1,1.0000
   201,   204,'1 ', 3.00000E-3, 3.00000E-2,   2.50000, 1200.00, 1300.00,    0.00,  0.00000,  0.00000,  0.00000,  0.00000,1,1,   0.00,   1,1.0000
   203,   205,'1 ', 5.00000E-3, 4.50000E-2,   0.08000,  200.00,  250.00,    0.00,  0.00000,  0.00000,  0.00000,  0.00000,1,2,   0.00,   1,1.0000
   203,   205,'2 ', 5.00000E-3, 4.50000E-2,   0.08000,  200.00,  250.00,    0.00,  0.00000,  0.00000,  0.00000,  0.00000,1,2,   0.00,   1,1.0000
  3001,  3003,'1 ', 0.00000E+0, 8.00000E-3,   0.00000,    0.00,    0.00,    0.00,  0.00000,  0.00000,  0.00000,  0.00000,1,1,   0.00,   1,1.0000
  3002,  3004,'1 ', 6.00000E-3, 5.40000E-2,   0.09000,    0.00,    0.00,    0.00,  0.00000,  0.00000,  0.00000,  0.00000,1,1,   0.00,   1,1.0000
  3003,  3005,'1 ', 6.00000E-3, 5.40000E-2,   0.09000,    0.00,    0.00,    0.00,  0.00000,  0.00000,  0.00000,  0.00000,1,1,   0.00,   1,1.0000
  3003,  3005,'2 ', 6.00000E-3, 5.40000E-2,   0.09000,    0.00,    0.00,    0.00,  0.00000,  0.00000,  0.00000,  0.00000,1,1,   0.00,   1,1.0000
  3005,  3006,'1 ', 3.50000E-3, 3.00000E-2,   0.07000,    0.00,    0.00,    0.00,  0.00000,  0.00000,  0.00000,  0.00000,1,1,   0.00,   1,1.0000
  3005,  3007,'1 ', 3.00000E-3, 2.50000E-2,   0.06000,    0.00,    0.00,    0.00,  0.00000,  0.00000,  0.00000,  0.00000,1,1,   0.00,   1,1.0000
  3005,  3008,'1 ', 6.00000E-3, 5.00000E-2,   0.12000,    0.00,    0.00,    0.00,  0.00000,  0.00000,  0.00000,  0.00000,1,1,   0.00,   1,1.0000
  3007,  3008,'1 ', 3.00000E-3, 2.50000E-2,   0.06000,    0.00,    0.00,    0.00,  0.00000,  0.00000,  0.00000,  0.00000,1,1,   0.00,   1,1.0000
0 / END OF BRANCH DATA, BEGIN TRANSFORMER DATA
   151,   101,     0,'1 ',2,2,1, 0.00000E+0, 0.00000E+0,2,'            ',1,   1,1.0000,   0,1.0000,   0,1.0000,   0,1.0000,'            '
 3.00000E-4, 1.36000E-2,   100.00
500.000, 500.000,  30.000,  1250.00,  1350.00,  1750.00, 0,      0, 0.00000, 0.00000, 0.00000, 0.00000,  33, 0, 0.00000, 0.00000,  0.000
21.6000,   0.000
   151,   102,     0,'1 ',2,2,1, 0.00000E+0, 0.00000E+0,2,'            ',1,   1,1.0000,   0,1.0000,   0,1.0000,   0,1.0000,'            '
 3.00000E-4, 1.36000E-2,   100.00
500.000, 500.000,  30.000,  1250.00,  1350.00,  1750.00, 0,      0, 0.00000, 0.00000, 0.00000, 0.00000,  33, 0, 0.00000, 0.00000,  0.000
21.6000,   0.000
   152,   153,     0,'1 ',2,2,1, 0.00000E+0, 0.00000E+0,2,'            ',1,   1,1.0000,   0,1.0000,   0,1.0000,   0,1.0000,'            '
 0.00000E+0, 5.00000E-3,   100.00
485.938, 500.000,   0.000,  2500.00,  3000.00,  3500.00, 1,    154,525.0000,475.0000, 1.00000, 0.98000,  33, 0, 0.00000, 0.00000,  0.000
230.000,   0.000
   201,   211,     0,'1 ',2,2,1, 0.00000E+0, 0.00000E+0,2,'            ',1,   1,1.0000,   0,1.0000,   0,1.0000,   0,1.0000,'            '
 7.00000E-4, 2.12500E-2,   100.00
500.000, 500.000,  30.000,   800.00,  1000.00,  1120.00, 0,      0, 0.00000, 0.00000, 0.00000, 0.00000,  33, 0, 0.00000, 0.00000,  0.000
20.0000,   0.000
   202,   203,     0,'1 ',2,2,1, 0.00000E+0, 0.00000E+0,2,'            ',1,   1,1.0000,   0,1.0000,   0,1.0000,   0,1.0000,'            '
 4.00000E-4, 1.62500E-2,   100.00
500.000, 500.000,   0.000,   800.00,  1040.00,  1200.00, 3,      0,30.00000,-30.0000,555.0000,545.0000,  34, 0, 0.00000, 0.00000,  0.000
230.000,   0.000
   204,   205,     0,'1 ',2,2,1, 0.00000E+0, 0.00000E+0,2,'            ',1,   1,1.0000,   0,1.0000,   0,1.0000,   0,1.0000,'            '
 3.00000E-4, 1.50000E-2,   100.00
487.500, 500.000,   0.000,   800.00,  1040.00,  1200.00, 1,    205,525.0000,475.0000, 0.98000, 0.98000,  33, 0, 0.00000, 0.00000,  0.000
230.000,   0.000
   205,   206,     0,'1 ',2,2,1, 0.00000E+0, 0.00000E+0,2,'            ',1,   1,1.0000,   0,1.0000,   0,1.0000,   0,1.0000,'            '
 2.60000E-4, 1.33300E-2,   100.00
230.000, 230.000,  30.000,   900.00,  1080.00,  1350.00, 0,      0, 0.00000, 0.00000, 0.00000, 0.00000,  33, 0, 0.00000, 0.00000,  0.000
18.0000,   0.000
  3001,  3002,     0,'1 ',2,2,1, 0.00000E+0, 0.00000E+0,2,'            ',1,   1,1.0000,   0,1.0000,   0,1.0000,   0,1.0000,'            '
 3.00000E-4, 1.50000E-2,   100.00
230.000, 230.000,   0.000,   800.00,  1040.00,  1200.00, 0,      0, 0.00000, 0.00000, 0.00000, 0.00000,  33, 0, 0.00000, 0.00000,  0.000
500.000,   0.000
  3001,  3011,     0,'1 ',2,2,1, 0.00000E+0, 0.00000E+0,2,'            ',1,   1,1.0000,   0,1.0000,   0,1.0000,   0,1.0000,'            '
 2.00000E-4, 1.00000E-2,   100.00
230.000, 230.000,  30.000,  1300.00,  1560.00,  1820.00, 0,      0, 0.00000, 0.00000, 0.00000, 0.00000,  33, 0, 0.00000, 0.00000,  0.000
13.8000,   0.000
  3004,  3005,     0,'1 ',2,2,1, 0.00000E+0, 0.00000E+0,2,'            ',1,   1,1.0000,   0,1.0000,   0,1.0000,   0,1.0000,'            '
 4.00000E-4, 1.62500E-2,   100.00
500.000, 500.000,   0.000,   800.00,  1040.00,  1200.00, 0,      0, 0.00000, 0.00000, 0.00000, 0.00000,  33, 0, 0.00000, 0.00000,  0.000
230.000,   0.000
  3008,  3018,     0,'1 ',2,2,1, 0.00000E+0, 0.00000E+0,2,'            ',1,   1,1.0000,   0,1.0000,   0,1.0000,   0,1.0000,'            '
 2.10000E-4, 8.50000E-2,   100.00
230.000, 230.000,  30.000,   150.00,   200.00,   250.00, 0,      0, 0.00000, 0.00000, 0.00000, 0.00000,  33, 0, 0.00000, 0.00000,  0.000
13.8000,   0.000
0 / END OF TRANSFORMER DATA, BEGIN AREA DATA
   1,   101,   250.000,    10.000,'FLAPCO      '
   2,   206,  -100.000,    10.000,'LIGHTCO     '
   5,  3011,  -150.000,    10.000,'WORLD       '
0 / END OF AREA DATA, BEGIN TWO-TERMINAL DC DATA
0 / END OF TWO-TERMINAL DC DATA, BEGIN VSC DC LINE DATA
0 / END OF VSC DC LINE DATA, BEGIN IMPEDANCE CORRECTION DATA
0 / END OF IMPEDANCE CORRECTION DATA, BEGIN MULTI-TERMINAL DC DATA
0 / END OF MULTI-TERMINAL DC DATA, BEGIN MULTI-SECTION LINE DATA
   201,   205,'&1',1,   204
  3005,  3008,'&1',2,  3007
0 / END OF MULTI-SECTION LINE DATA, BEGIN ZONE DATA
   1,'FIRST       '
   2,'SECOND      '
   5,'FIFTH       '
  77,'PLANT       '
0 / END OF ZONE DATA, BEGIN INTER-AREA TRANSFER DATA
   1,   2,'A',    70.00
   1,   2,'B',    30.00
   1,   5,'A',   100.00
   1,   5,'B',    50.00
0 / END OF INTER-AREA TRANSFER DATA, BEGIN OWNER DATA
   1,'TRAN 1      '
   2,'TRAN 2      '
   5,'TRAN 5      '
  11,'GEN 1       '
  22,'GEN 2       '
  55,'GEN 5       '
 100,'NO BUSES    '
0 / END OF OWNER DATA, BEGIN FACTS DEVICE DATA
0 / END OF FACTS DEVICE DATA, BEGIN SWITCHED SHUNT DATA
0 / END OF SWITCHED SHUNT DATA, BEGIN GNE DATA
0 / END OF GNE DATA, BEGIN INDUCTION MACHINE DATA
0 / END OF INDUCTION MACHINE DATA
Q
